@<TRIPOS>MOLECULE
Coordinates from ORCA-job 1_opt
 28 29 0 0 0
SMALL
GASTEIGER

@<TRIPOS>ATOM
      1 C          -1.2077   -1.0133    0.7730 C.3     1  UNL1       -0.0528
      2 C          -1.4774    0.5229    0.8670 C.3     1  UNL1       -0.0528
      3 C          -0.5051    1.1790   -0.1397 C.3     1  UNL1       -0.0499
      4 C           0.6869    0.2024   -0.2080 C.3     1  UNL1       -0.0371
      5 C          -0.0201   -1.1701   -0.2110 C.3     1  UNL1       -0.0499
      6 C           1.6656    0.4108   -1.3831 C.3     1  UNL1       -0.0248
      7 C           2.4396    1.7134   -1.3260 C.ar    1  UNL1       -0.0471
      8 C           3.6394    1.8076   -0.5864 C.ar    1  UNL1       -0.0586
      9 C           4.3449    3.0191   -0.4986 C.ar    1  UNL1       -0.0615
     10 C           3.8615    4.1661   -1.1515 C.ar    1  UNL1       -0.0617
     11 C           2.6711    4.0887   -1.8940 C.ar    1  UNL1       -0.0615
     12 C           1.9701    2.8737   -1.9797 C.ar    1  UNL1       -0.0586
     13 H          -2.0985   -1.5776    0.4298 H       1  UNL1        0.0265
     14 H          -0.9485   -1.4231    1.7711 H       1  UNL1        0.0265
     15 H          -1.2637    0.8874    1.8936 H       1  UNL1        0.0265
     16 H          -2.5344    0.7848    0.6574 H       1  UNL1        0.0265
     17 H          -0.2151    2.2110    0.1428 H       1  UNL1        0.0268
     18 H          -0.9762    1.2385   -1.1474 H       1  UNL1        0.0268
     19 H           1.2641    0.2969    0.7424 H       1  UNL1        0.0304
     20 H           0.6599   -2.0063    0.0533 H       1  UNL1        0.0268
     21 H          -0.3937   -1.3755   -1.2392 H       1  UNL1        0.0268
     22 H           1.0924    0.3572   -2.3356 H       1  UNL1        0.0316
     23 H           2.3825   -0.4389   -1.4003 H       1  UNL1        0.0316
     24 H           4.0305    0.9111   -0.0774 H       1  UNL1        0.0620
     25 H           5.2827    3.0662    0.0769 H       1  UNL1        0.0618
     26 H           4.4143    5.1162   -1.0871 H       1  UNL1        0.0618
     27 H           2.2865    4.9803   -2.4138 H       1  UNL1        0.0618
     28 H           1.0400    2.8205   -2.5682 H       1  UNL1        0.0620
@<TRIPOS>BOND
     1    28    12    1
     2    27    11    1
     3    22     6    1
     4    12    11   ar
     5    12     7   ar
     6    11    10   ar
     7    23     6    1
     8     6     7    1
     9     6     4    1
    10     7     8   ar
    11    21     5    1
    12    10    26    1
    13    10     9   ar
    14    18     3    1
    15     8     9   ar
    16     8    24    1
    17     9    25    1
    18     5     4    1
    19     5    20    1
    20     5     1    1
    21     4     3    1
    22     4    19    1
    23     3    17    1
    24     3     2    1
    25    13     1    1
    26    16     2    1
    27     1     2    1
    28     1    14    1
    29     2    15    1
